results/2026-03-03/bilevel_comparisons_single_period/solution_bus_motivation_a_jain.csv
bus_id,vm_avg,z_voltage
1,1.0012809476028,1.0
2,1.0012809507837999,1.0
3,1.0078787739730262,1.0
4,1.0012876169115,1.0
5,1.0078729399432353,1.0
6,1.014889156509222,1.0
7,1.0052706746889117,1.0
8,1.008875627048615,1.0
9,1.008875627048615,1.0
10,1.0088756266608345,1.0
11,1.0012876131961737,1.0
12,1.0071237602931158,1.0
13,1.0081581632157337,1.0
14,1.0052773138368707,1.0
15,1.008875627048615,1.0
16,1.008875627048615,1.0
